GuGrid_VLN_Node.Txt

LINE-GROUND and LINE-LINE VOLTAGES BY BUS & NODE

Bus          Node    VLN (kV)   Angle      pu     Base kV    Node-Node   VLL (kV)  Angle      pu

SOURCEBUS .. 1       6.3303 /_   -0.3         0     0.000        1-2     10.968 /_   29.7         0
   -         2       6.3359 /_ -120.3         0     0.000        2-3     10.976 /_  -90.3         0
   -         3       6.3345 /_  119.7         0     0.000        3-1     10.966 /_  149.7         0
SUB_BUS .... 1      0.27163 /_  -34.0         0     0.000        1-2    0.46919 /_   -3.7         0
   -         2      0.27175 /_ -153.4         0     0.000        2-3    0.47324 /_ -123.4         0
   -         3      0.27393 /_   86.3         0     0.000        3-1    0.47318 /_  116.0         0
   -         4     0.022565 /_  -37.7         0     0.000
JUNCTIONBUS1 1      0.24752 /_  -35.6         0     0.000        1-2    0.42918 /_   -4.9         0
   -         2      0.25067 /_ -154.6         0     0.000        2-3    0.43835 /_ -125.0         0
   -         3      0.25291 /_   84.4         0     0.000        3-1    0.43341 /_  114.0         0
   -         4     0.022852 /_  -37.5         0     0.000
LOADBUS7 ... 1      0.24111 /_  -35.3         0     0.000        1-2     0.4183 /_   -4.4         0
   -         2      0.24467 /_ -154.1         0     0.000        2-3    0.42808 /_ -124.6         0
   -         3       0.2466 /_   84.6         0     0.000        3-1    0.42214 /_  114.3         0
   -         4      0.02241 /_  -37.1         0     0.000
LOADBUS8 ... 1      0.24363 /_  -35.6         0     0.000        1-2    0.42246 /_   -4.9         0
   -         2      0.24692 /_ -154.5         0     0.000        2-3    0.43206 /_ -125.0         0
   -         3      0.24912 /_   84.3         0     0.000        3-1    0.42663 /_  114.0         0
   -         4     0.022563 /_  -37.5         0     0.000
LOADBUS10 .. 1      0.23978 /_  -35.6         0     0.000        1-2    0.41582 /_   -4.8         0
   -         2      0.24324 /_ -154.5         0     0.000        2-3    0.42587 /_ -125.0         0
   -         3      0.24538 /_   84.3         0     0.000        3-1    0.41993 /_  113.9         0
   -         4     0.022288 /_  -37.4         0     0.000
LOADBUS9 ... 1      0.22743 /_  -34.7         0     0.000        1-2    0.39473 /_   -3.7         0
   -         2      0.23153 /_ -153.3         0     0.000        2-3    0.40576 /_ -124.1         0
   -         3      0.23304 /_   85.0         0     0.000        3-1    0.39809 /_  114.7         0
   -         4     0.021302 /_  -36.7         0     0.000
LOADBUS12 .. 1      0.23611 /_  -35.4         0     0.000        1-2    0.40961 /_   -4.5         0
   -         2      0.23982 /_ -154.1         0     0.000        2-3    0.41998 /_ -124.7         0
   -         3      0.24175 /_   84.5         0     0.000        3-1    0.41346 /_  114.2         0
   -         4     0.022028 /_  -37.2         0     0.000
LOADBUS11 .. 1      0.22902 /_  -35.0         0     0.000        1-2    0.39746 /_   -4.0         0
   -         2      0.23308 /_ -153.7         0     0.000        2-3    0.40844 /_ -124.4         0
   -         3       0.2347 /_   84.7         0     0.000        3-1    0.40096 /_  114.4         0
   -         4     0.021485 /_  -36.8         0     0.000
JUNCTIONBUS2 1      0.23699 /_  -36.2         0     0.000        1-2    0.41182 /_   -5.3         0
   -         2       0.2416 /_ -155.0         0     0.000        2-3    0.42336 /_ -125.5         0
   -         3      0.24392 /_   83.6         0     0.000        3-1    0.41625 /_  113.2         0
   -         4     0.023198 /_  -37.3         0     0.000
HOUSEBUS1 .. 1      0.23103 /_  -36.0         0     0.000        1-2    0.40152 /_   -5.0         0
   -         2      0.23584 /_ -154.7         0     0.000        2-3    0.41358 /_ -125.3         0
   -         3      0.23796 /_   83.7         0     0.000        3-1    0.40571 /_  113.4         0
   -         4     0.022643 /_  -37.1         0     0.000
HOUSEBUS2 .. 1      0.22657 /_  -35.9         0     0.000        1-2    0.39382 /_   -4.8         0
   -         2      0.23154 /_ -154.4         0     0.000        2-3    0.40627 /_ -125.2         0
   -         3       0.2335 /_   83.8         0     0.000        3-1    0.39782 /_  113.5         0
   -         4     0.022228 /_  -36.9         0     0.000
LOADBUS6 ... 1      0.22865 /_  -36.5         0     0.000        1-2     0.3989 /_   -5.3         0
   -         2      0.23541 /_ -155.0         0     0.000        2-3    0.41311 /_ -125.7         0
   -         3      0.23778 /_   83.3         0     0.000        3-1    0.40364 /_  112.8         0
   -         4     0.024616 /_  -36.8         0     0.000
LOADBUS1 ... 1      0.22501 /_  -36.5         0     0.000        1-2    0.39249 /_   -5.2         0
   -         2      0.23177 /_ -155.0         0     0.000        2-3    0.40702 /_ -125.7         0
   -         3       0.2341 /_   83.3         0     0.000        3-1    0.39716 /_  112.7         0
   -         4     0.024138 /_  -36.8         0     0.000
LOADBUS13 .. 1      0.21804 /_  -36.5         0     0.000        1-2    0.38987 /_   -4.5         0
   -         2      0.23541 /_ -155.0         0     0.000        2-3    0.41311 /_ -125.7         0
   -         3      0.23778 /_   83.3         0     0.000        3-1    0.39456 /_  112.0         0
   -         4     0.035224 /_  -36.7         0     0.000
